[General]
repeat = 1
SN.deployment = "[1..50]->uniform"
SN.field_x = 70
SN.field_y = 70
SN.node[*].Application.collectTraceInfo = false
SN.node[*].Application.constantDataPayload = 2000
SN.node[*].Application.packet_rate = 1
SN.node[*].Application.rng-0	 = 3
SN.node[*].ApplicationName = "ThroughputTest"
SN.node[*].Communication.MAC.backoffType = 2
SN.node[*].Communication.MAC.collectTraceInfo = false
SN.node[*].Communication.MAC.dutyCycle = 1.0
SN.node[*].Communication.MAC.randomTxOffset = 0
SN.node[*].Communication.MAC.rng-0 = 4
SN.node[*].Communication.MAC.rng-1 = 5
SN.node[*].Communication.MACProtocolName = "TunableMAC"
SN.node[*].Communication.Radio.RadioParametersFile = "../Parameters/Radio/CC2420.txt"
SN.node[*].Communication.Radio.collectTraceInfo = false
SN.node[*].Communication.Radio.rng-0 = 2
SN.node[*].Communication.Routing.collectTraceInfo = false
SN.node[*].Communication.Routing.netBufferSize = 1000
SN.node[*].Communication.Routing.percentage = 0.05
SN.node[*].Communication.Routing.powersConfig = xmldoc("powersConfig.xml")
SN.node[*].Communication.Routing.roundLength = 20s
SN.node[*].Communication.Routing.slotLength = 0.2
SN.node[*].Communication.RoutingProtocolName = "LeachRouting"
SN.node[*].MobilityManager.rng-0 = 0
SN.node[*].ResourceManager.*.rng-0 = 6
SN.node[*].ResourceManager.collectTraceInfo = false
SN.node[*].SensorManager.collectTraceInfo = false
SN.node[*].SensorManager.rng-0	  = 7
SN.node[*].SensorManager.rng-1	  = 8
SN.node[0].Communication.Routing.isSink = true
SN.numNodes = 50
SN.physicalProcess[*].rng-0 	 = 10
SN.wirelessChannel.bidirectionalSigma = 0
SN.wirelessChannel.collectTraceInfo = false
SN.wirelessChannel.onlyStaticNodes = true
SN.wirelessChannel.pathLossExponent = 2.0
SN.wirelessChannel.rng-0 	 = 1
SN.wirelessChannel.rng-2 	 = 9
SN.wirelessChannel.sigma = 0
cmdenv-event-banners = false
cmdenv-express-mode = true
cmdenv-interactive = false
cmdenv-module-messages = true
cmdenv-performance-display = false
ned-path = ../../src
network = SN
num-rngs = 11
output-scalar-file = Castalia-statistics.sca
output-vector-file = Castalia-statistics.vec
sim-time-limit = 20s
