[General]
repeat = 1
SN.deployment = "4x4"
SN.field_x = 60
SN.field_y = 60
SN.node[*].Application.constantDataPayload = 2000
SN.node[*].Application.packet_rate = 5
SN.node[*].Application.rng-0	 = 3
SN.node[*].Application.sampleInterval = 10
SN.node[*].ApplicationName = "MyApp"
SN.node[*].Communication.MAC.backoffType = 2
SN.node[*].Communication.MAC.dutyCycle = 1.0
SN.node[*].Communication.MAC.randomTxOffset = 0
SN.node[*].Communication.MAC.rng-0 = 4
SN.node[*].Communication.MAC.rng-1 = 5
SN.node[*].Communication.MACProtocolName = "TunableMAC"
SN.node[*].Communication.Radio.RadioParametersFile = "../Parameters/Radio/CC2420.txt"
SN.node[*].Communication.Radio.mode = "IDEAL"
SN.node[*].Communication.Radio.rng-0 = 2
SN.node[*].Communication.RoutingProtocolName = "MyAppRouting"
SN.node[*].MobilityManager.rng-0 = 0
SN.node[*].ResourceManager.*.rng-0 = 6
SN.node[*].SensorManager.rng-0	  = 7
SN.node[*].SensorManager.rng-1	  = 8
SN.node[0].Application.collectTraceInfo = true
SN.node[3].Application.isSink = true
SN.numNodes = 16
SN.physicalProcess[*].rng-0 	 = 10
SN.wirelessChannel.bidirectionalSigma = 0
SN.wirelessChannel.rng-0 	 = 1
SN.wirelessChannel.rng-2 	 = 9
SN.wirelessChannel.sigma = 0
cmdenv-event-banners = false
cmdenv-express-mode = true
cmdenv-interactive = false
cmdenv-module-messages = true
cmdenv-performance-display = false
ned-path = ../../src
network = SN
num-rngs = 11
output-scalar-file = Castalia-statistics.sca
output-vector-file = Castalia-statistics.vec
sim-time-limit = 100s
