# ********************************************************************************
# *  Copyright: National ICT Australia,  2007 - 2010                             *
# *  Developed at the ATP lab, Networked Systems research theme                  *
# *  Author(s): Dimosthenis Pediaditakis, Yuriy Tselishchev                      *
# *  This file is distributed under the terms in the attached LICENSE file.      *
# *  If you do not find this file, copies can be found by writing to:            *
# *                                                                              *
# *      NICTA, Locked Bag 9013, Alexandria, NSW 1435, Australia                 *
# *      Attention:  License Inquiry.                                            *
# *                                                                              *
# *******************************************************************************/

[General]


include ../Parameters/Castalia.ini

# ===================================================
# Topology and simulation time
# ===================================================

sim-time-limit = 86400s

SN.field_x = 100		# meters
SN.field_y = 100		# meters

SN.numNodes = 50
#SN.deployment = "4x4"
SN.deployment = "uniform"

# ===================================================
# Application
# ===================================================

SN.node[*].ApplicationName = "ValueReporting"
SN.node[0].Application.isSink = true
SN.node[*].Application.minSampleInterval = 1000

# ===================================================
# Routing
# ===================================================
SN.node[*].Communication.RoutingProtocolName = "MultipathRingsRouting"

# ===================================================
# MAC, radio and channel
# ===================================================

SN.node[*].Communication.Radio.RadioParametersFile = "../Parameters/Radio/CC2420.txt"
#SN.node[*].Communication.MACProtocolName = "TMAC"
include ../Parameters/MAC/CSMA.ini
SN.wirelessChannel.sigma = 0
SN.wirelessChannel.bidirectionalSigma = 0
SN.node[*].Communication.Radio.mode = "IDEAL"

# ===================================================
# Traces
# ===================================================

SN.node[*].Communication.Routing.collectTraceInfo = false
SN.node[*].Communication.MAC.collectTraceInfo = false
SN.node[*].Application.collectTraceInfo = false

# ===================================================
# Energy
# ===================================================
SN.node[*].ResourceManager.EnergySubsystem.EnergyStorage.numBatteries = 0
SN.node[*].ResourceManager.EnergySubsystem.EnergyStorage.numRechBatteries = 1
SN.node[*].ResourceManager.EnergySubsystem.EnergyStorage.RechBatteries[0].mAmpereHour = 50#1735
#SN.node[*].ResourceManager.EnergySubsystem.EnergyStorage.RechBatteries.fractionInitialCharge = 0;

#battery level output
SN.node[*].Communication.Routing.collectOutputTimer = 50

# Energy sources
SN.numEnergySources = 1
SN.energySource[0].description = "Solar"
SN.energySource[0].traceFile = "../Parameters/EnergySource/SolarTraces/NREL-summerday.irradiance"

# ===================================================
# Harvesting topologies
# ===================================================
[Config h5]

SN.node[..5].ResourceManager.EnergySubsystem.EnergyHarvesting.numEnergyHarvesters = 1
SN.node[..5].ResourceManager.EnergySubsystem.EnergyHarvesting.Harvesters[0].typename = "SolarCell"

[Config h10]

SN.node[..10].ResourceManager.EnergySubsystem.EnergyHarvesting.numEnergyHarvesters = 1
SN.node[..10].ResourceManager.EnergySubsystem.EnergyHarvesting.Harvesters[0].typename = "SolarCell"

[Config h15]

SN.node[..15].ResourceManager.EnergySubsystem.EnergyHarvesting.numEnergyHarvesters = 1
SN.node[..15].ResourceManager.EnergySubsystem.EnergyHarvesting.Harvesters[0].typename = "SolarCell"

[Config h20]

SN.node[..20].ResourceManager.EnergySubsystem.EnergyHarvesting.numEnergyHarvesters = 1
SN.node[..20].ResourceManager.EnergySubsystem.EnergyHarvesting.Harvesters[0].typename = "SolarCell"

[Config h25]

SN.node[..25].ResourceManager.EnergySubsystem.EnergyHarvesting.numEnergyHarvesters = 1
SN.node[..25].ResourceManager.EnergySubsystem.EnergyHarvesting.Harvesters[0].typename = "SolarCell"

[Config h30]

SN.node[..30].ResourceManager.EnergySubsystem.EnergyHarvesting.numEnergyHarvesters = 1
SN.node[..30].ResourceManager.EnergySubsystem.EnergyHarvesting.Harvesters[0].typename = "SolarCell"

[Config h35]

SN.node[..35].ResourceManager.EnergySubsystem.EnergyHarvesting.numEnergyHarvesters = 1
SN.node[..35].ResourceManager.EnergySubsystem.EnergyHarvesting.Harvesters[0].typename = "SolarCell"

[Config h40]

SN.node[..40].ResourceManager.EnergySubsystem.EnergyHarvesting.numEnergyHarvesters = 1
SN.node[..40].ResourceManager.EnergySubsystem.EnergyHarvesting.Harvesters[0].typename = "SolarCell"

[Config h45]

SN.node[..45].ResourceManager.EnergySubsystem.EnergyHarvesting.numEnergyHarvesters = 1
SN.node[..45].ResourceManager.EnergySubsystem.EnergyHarvesting.Harvesters[0].typename = "SolarCell"

[Config h50]

SN.node[..50].ResourceManager.EnergySubsystem.EnergyHarvesting.numEnergyHarvesters = 1
SN.node[..50].ResourceManager.EnergySubsystem.EnergyHarvesting.Harvesters[0].typename = "SolarCell"

#SN.field_x = 1					# meters
#SN.field_y = 1					# meters
#SN.numNodes = 3
#SN.node[0].xCoor = 0 
#SN.node[0].yCoor = 0 
#SN.node[1].xCoor = 0.5
#SN.node[1].yCoor = 0.5
#SN.node[2].xCoor = 1
#SN.node[2].yCoor = 1




